123031
  -OEChem-12211211272D

 48 56  0     0  0  0  0  0  0999 V2000
    4.7403   -1.0000    0.0000 C   0  0  0  0  0  0  0  0  0  0  0  0
    3.8743   -0.5000    0.0000 C   0  0  0  0  0  0  0  0  0  0  0  0
    5.6063    0.5000    0.0000 C   0  0  0  0  0  0  0  0  0  0  0  0
    4.7403    1.0000    0.0000 C   0  0  0  0  0  0  0  0  0  0  0  0
    5.6063   -0.5000    0.0000 C   0  0  0  0  0  0  0  0  0  0  0  0
    3.8743    0.5000    0.0000 C   0  0  0  0  0  0  0  0  0  0  0  0
    4.7564   -2.0415    0.0000 C   0  0  0  0  0  0  0  0  0  0  0  0
    2.9643   -1.0068    0.0000 C   0  0  0  0  0  0  0  0  0  0  0  0
    6.5163    1.0068    0.0000 C   0  0  0  0  0  0  0  0  0  0  0  0
    4.7242    2.0415    0.0000 C   0  0  0  0  0  0  0  0  0  0  0  0
    6.5003   -1.0347    0.0000 C   0  0  0  0  0  0  0  0  0  0  0  0
    2.9643    1.0068    0.0000 C   0  0  0  0  0  0  0  0  0  0  0  0
    3.8583   -2.5693    0.0000 C   0  0  0  0  0  0  0  0  0  0  0  0
    2.9562   -2.0484    0.0000 C   0  0  0  0  0  0  0  0  0  0  0  0
    6.5244    2.0484    0.0000 C   0  0  0  0  0  0  0  0  0  0  0  0
    5.6223    2.5693    0.0000 C   0  0  0  0  0  0  0  0  0  0  0  0
    5.6223   -2.5693    0.0000 C   0  0  0  0  0  0  0  0  0  0  0  0
    2.0743   -0.5208    0.0000 C   0  0  0  0  0  0  0  0  0  0  0  0
    7.4063    0.5208    0.0000 C   0  0  0  0  0  0  0  0  0  0  0  0
    3.8583    2.5693    0.0000 C   0  0  0  0  0  0  0  0  0  0  0  0
    6.5244   -2.0484    0.0000 C   0  0  0  0  0  0  0  0  0  0  0  0
    2.0743    0.5208    0.0000 C   0  0  0  0  0  0  0  0  0  0  0  0
    7.4063   -0.5208    0.0000 C   0  0  0  0  0  0  0  0  0  0  0  0
    2.9562    2.0484    0.0000 C   0  0  0  0  0  0  0  0  0  0  0  0
    7.4722    2.5764    0.0000 C   0  0  0  0  0  0  0  0  0  0  0  0
    5.6056    3.6541    0.0000 C   0  0  0  0  0  0  0  0  0  0  0  0
    3.8751   -3.6541    0.0000 C   0  0  0  0  0  0  0  0  0  0  0  0
    2.0084   -2.5764    0.0000 C   0  0  0  0  0  0  0  0  0  0  0  0
    2.9396   -4.2038    0.0000 C   0  0  0  0  0  0  0  0  0  0  0  0
    2.0000   -3.6614    0.0000 C   0  0  0  0  0  0  0  0  0  0  0  0
    7.4806    3.6614    0.0000 C   0  0  0  0  0  0  0  0  0  0  0  0
    6.5410    4.2038    0.0000 C   0  0  0  0  0  0  0  0  0  0  0  0
    5.6149   -3.1892    0.0000 H   0  0  0  0  0  0  0  0  0  0  0  0
    1.5411   -0.8372    0.0000 H   0  0  0  0  0  0  0  0  0  0  0  0
    7.9396    0.8372    0.0000 H   0  0  0  0  0  0  0  0  0  0  0  0
    3.8657    3.1892    0.0000 H   0  0  0  0  0  0  0  0  0  0  0  0
    2.4181    2.3564    0.0000 H   0  0  0  0  0  0  0  0  0  0  0  0
    7.9421   -0.8329    0.0000 H   0  0  0  0  0  0  0  0  0  0  0  0
    1.5411    0.8372    0.0000 H   0  0  0  0  0  0  0  0  0  0  0  0
    7.0649   -2.3521    0.0000 H   0  0  0  0  0  0  0  0  0  0  0  0
    5.0651    3.9579    0.0000 H   0  0  0  0  0  0  0  0  0  0  0  0
    8.0056    2.2602    0.0000 H   0  0  0  0  0  0  0  0  0  0  0  0
    1.4750   -2.2602    0.0000 H   0  0  0  0  0  0  0  0  0  0  0  0
    4.4155   -3.9579    0.0000 H   0  0  0  0  0  0  0  0  0  0  0  0
    2.9420   -4.8238    0.0000 H   0  0  0  0  0  0  0  0  0  0  0  0
    1.4619   -3.9693    0.0000 H   0  0  0  0  0  0  0  0  0  0  0  0
    8.0187    3.9693    0.0000 H   0  0  0  0  0  0  0  0  0  0  0  0
    6.5386    4.8238    0.0000 H   0  0  0  0  0  0  0  0  0  0  0  0
  1  2  1  0  0  0  0
  1  5  1  0  0  0  0
  1  7  2  0  0  0  0
  2  6  1  0  0  0  0
  2  8  2  0  0  0  0
  3  4  1  0  0  0  0
  3  5  1  0  0  0  0
  3  9  2  0  0  0  0
  4  6  1  0  0  0  0
  4 10  2  0  0  0  0
  5 11  2  0  0  0  0
  6 12  2  0  0  0  0
  7 13  1  0  0  0  0
  7 17  1  0  0  0  0
  8 14  1  0  0  0  0
  8 18  1  0  0  0  0
  9 15  1  0  0  0  0
  9 19  1  0  0  0  0
 10 16  1  0  0  0  0
 10 20  1  0  0  0  0
 11 21  1  0  0  0  0
 11 23  1  0  0  0  0
 12 22  1  0  0  0  0
 12 24  1  0  0  0  0
 13 14  1  0  0  0  0
 13 27  2  0  0  0  0
 14 28  2  0  0  0  0
 15 16  1  0  0  0  0
 15 25  2  0  0  0  0
 16 26  2  0  0  0  0
 17 21  2  0  0  0  0
 17 33  1  0  0  0  0
 18 22  2  0  0  0  0
 18 34  1  0  0  0  0
 19 23  2  0  0  0  0
 19 35  1  0  0  0  0
 20 24  2  0  0  0  0
 20 36  1  0  0  0  0
 21 40  1  0  0  0  0
 22 39  1  0  0  0  0
 23 38  1  0  0  0  0
 24 37  1  0  0  0  0
 25 31  1  0  0  0  0
 25 42  1  0  0  0  0
 26 32  1  0  0  0  0
 26 41  1  0  0  0  0
 27 29  1  0  0  0  0
 27 44  1  0  0  0  0
 28 30  1  0  0  0  0
 28 43  1  0  0  0  0
 29 30  2  0  0  0  0
 29 45  1  0  0  0  0
 30 46  1  0  0  0  0
 31 32  2  0  0  0  0
 31 47  1  0  0  0  0
 32 48  1  0  0  0  0
M  END
> <PUBCHEM_COMPOUND_CID>
123031

> <PUBCHEM_COMPOUND_CANONICALIZED>
1

> <PUBCHEM_CACTVS_COMPLEXITY>
644

> <PUBCHEM_CACTVS_HBOND_ACCEPTOR>
0

> <PUBCHEM_CACTVS_HBOND_DONOR>
0

> <PUBCHEM_CACTVS_ROTATABLE_BOND>
0

> <PUBCHEM_CACTVS_SUBSKEYS>
AAADceB8AAAAAAAAAAAAAAAAAAAAAAAAAAAwYMGDAAAAAADBVAAAGAAAAAAADACAGAAwAMAAAACAAiBCAAACAAAgAAAIiAAAAIgIICKAERCAIAAggAAIiAcAgMAOwAACAAAQAACAAAQAACAAAAAAAAAAAA==

> <PUBCHEM_IUPAC_INCHI>
InChI=1S/C32H16/c1-2-6-20-19(5-1)23-13-9-17-11-15-25-21-7-3-4-8-22(21)26-16-12-18-10-14-24(20)30-28(18)32(26)31(25)27(17)29(23)30/h1-16H

> <PUBCHEM_IUPAC_INCHIKEY>
HHCCABYUXOGSCO-UHFFFAOYSA-N

> <PUBCHEM_XLOGP3_AA>
8.4

> <PUBCHEM_EXACT_MASS>
400.125201

> <PUBCHEM_MOLECULAR_FORMULA>
C32H16

> <PUBCHEM_MOLECULAR_WEIGHT>
400.46944

> <PUBCHEM_OPENEYE_CAN_SMILES>
C1=CC=C2C3=C4C5=C(C=C3)C=CC6=C5C7=C(C=CC8=C7C4=C(C2=C1)C=C8)C9=CC=CC=C69

> <PUBCHEM_OPENEYE_ISO_SMILES>
C1=CC=C2C3=C4C5=C(C=C3)C=CC6=C5C7=C(C=CC8=C7C4=C(C2=C1)C=C8)C9=CC=CC=C69

> <PUBCHEM_CACTVS_TPSA>
0

> <PUBCHEM_MONOISOTOPIC_WEIGHT>
400.125201

> <PUBCHEM_TOTAL_CHARGE>
0

> <PUBCHEM_HEAVY_ATOM_COUNT>
32

> <PUBCHEM_ATOM_DEF_STEREO_COUNT>
0

> <PUBCHEM_ATOM_UDEF_STEREO_COUNT>
0

> <PUBCHEM_BOND_DEF_STEREO_COUNT>
0

> <PUBCHEM_BOND_UDEF_STEREO_COUNT>
0

> <PUBCHEM_ISOTOPIC_ATOM_COUNT>
0

> <PUBCHEM_COMPONENT_COUNT>
1

> <PUBCHEM_CACTVS_TAUTO_COUNT>
1

> <PUBCHEM_COORDINATE_TYPE>
1
5
255

> <PUBCHEM_BONDANNOTATIONS>
1  2  8
1  5  8
1  7  8
10  16  8
10  20  8
11  21  8
11  23  8
12  22  8
12  24  8
13  14  8
13  27  8
14  28  8
15  16  8
15  25  8
16  26  8
17  21  8
18  22  8
19  23  8
2  6  8
2  8  8
20  24  8
25  31  8
26  32  8
27  29  8
28  30  8
29  30  8
3  4  8
3  5  8
3  9  8
31  32  8
4  10  8
4  6  8
5  11  8
6  12  8
7  13  8
7  17  8
8  14  8
8  18  8
9  15  8
9  19  8

$$$$
