114328
  -OEChem-12211213452D

 60 60  0     1  0  0  0  0  0999 V2000
    6.3054    1.0000    0.0000 S   0  0  3  0  0  0  0  0  0  0  0  0
    5.8054    3.8660    0.0000 O   0  5  0  0  0  0  0  0  0  0  0  0
    6.3054    0.0000    0.0000 O   0  0  0  0  0  0  0  0  0  0  0  0
    7.1695    9.8968    0.0000 O   0  0  0  0  0  0  0  0  0  0  0  0
    0.5369    4.9484    0.0000 O   0  0  0  0  0  0  0  0  0  0  0  0
    6.3054    3.0000    0.0000 N   0  3  3  0  0  0  0  0  0  0  0  0
    6.3054    6.4641    0.0000 N   0  0  0  0  0  0  0  0  0  0  0  0
    7.1714    2.5000    0.0000 C   0  0  0  0  0  0  0  0  0  0  0  0
    6.8054    3.8660    0.0000 C   0  0  0  0  0  0  0  0  0  0  0  0
    5.4394    2.5000    0.0000 C   0  0  0  0  0  0  0  0  0  0  0  0
    9.8355    3.0242    0.0000 C   0  0  0  0  0  0  0  0  0  0  0  0
    7.1714    1.5000    0.0000 C   0  0  0  0  0  0  0  0  0  0  0  0
    8.9714    2.5208    0.0000 C   0  0  0  0  0  0  0  0  0  0  0  0
    6.3054    4.7320    0.0000 C   0  0  0  0  0  0  0  0  0  0  0  0
    8.0654    3.0347    0.0000 C   0  0  0  0  0  0  0  0  0  0  0  0
    5.4394    1.5000    0.0000 C   0  0  0  0  0  0  0  0  0  0  0  0
    8.0654    0.9653    0.0000 C   0  0  0  0  0  0  0  0  0  0  0  0
    8.9714    1.4792    0.0000 C   0  0  0  0  0  0  0  0  0  0  0  0
    6.8054    5.5981    0.0000 C   0  0  0  0  0  0  0  0  0  0  0  0
    4.5454    3.0347    0.0000 C   0  0  0  0  0  0  0  0  0  0  0  0
   10.6996    3.5275    0.0000 C   0  0  0  0  0  0  0  0  0  0  0  0
   10.3388    2.1601    0.0000 C   0  0  0  0  0  0  0  0  0  0  0  0
    9.3322    3.8882    0.0000 C   0  0  0  0  0  0  0  0  0  0  0  0
    4.5454    0.9653    0.0000 C   0  0  0  0  0  0  0  0  0  0  0  0
    3.6393    2.5208    0.0000 C   0  0  0  0  0  0  0  0  0  0  0  0
    3.6393    1.4792    0.0000 C   0  0  0  0  0  0  0  0  0  0  0  0
    6.8054    7.3301    0.0000 C   0  0  0  0  0  0  0  0  0  0  0  0
    5.3054    6.4641    0.0000 C   0  0  0  0  0  0  0  0  0  0  0  0
    7.2803    3.4675    0.0000 H   0  0  0  0  0  0  0  0  0  0  0  0
    7.2803    4.2646    0.0000 H   0  0  0  0  0  0  0  0  0  0  0  0
    5.8304    5.1306    0.0000 H   0  0  0  0  0  0  0  0  0  0  0  0
    5.8304    4.3335    0.0000 H   0  0  0  0  0  0  0  0  0  0  0  0
    8.0582    3.6546    0.0000 H   0  0  0  0  0  0  0  0  0  0  0  0
    8.0582    0.3454    0.0000 H   0  0  0  0  0  0  0  0  0  0  0  0
    9.5072    1.1671    0.0000 H   0  0  0  0  0  0  0  0  0  0  0  0
    7.2803    5.1996    0.0000 H   0  0  0  0  0  0  0  0  0  0  0  0
    7.2803    5.9966    0.0000 H   0  0  0  0  0  0  0  0  0  0  0  0
    4.5526    3.6546    0.0000 H   0  0  0  0  0  0  0  0  0  0  0  0
    9.8679    4.2003    0.0000 H   0  0  0  0  0  0  0  0  0  0  0  0
    9.0201    4.4240    0.0000 H   0  0  0  0  0  0  0  0  0  0  0  0
    8.7964    3.5762    0.0000 H   0  0  0  0  0  0  0  0  0  0  0  0
    9.8031    1.8480    0.0000 H   0  0  0  0  0  0  0  0  0  0  0  0
   11.0117    2.9918    0.0000 H   0  0  0  0  0  0  0  0  0  0  0  0
   11.2353    3.8396    0.0000 H   0  0  0  0  0  0  0  0  0  0  0  0
   10.3875    4.0632    0.0000 H   0  0  0  0  0  0  0  0  0  0  0  0
   10.6509    1.6243    0.0000 H   0  0  0  0  0  0  0  0  0  0  0  0
   10.8746    2.4721    0.0000 H   0  0  0  0  0  0  0  0  0  0  0  0
    4.5526    0.3454    0.0000 H   0  0  0  0  0  0  0  0  0  0  0  0
    3.1036    2.8329    0.0000 H   0  0  0  0  0  0  0  0  0  0  0  0
    3.1036    1.1671    0.0000 H   0  0  0  0  0  0  0  0  0  0  0  0
    7.3423    7.0201    0.0000 H   0  0  0  0  0  0  0  0  0  0  0  0
    7.1154    7.8671    0.0000 H   0  0  0  0  0  0  0  0  0  0  0  0
    6.2684    7.6401    0.0000 H   0  0  0  0  0  0  0  0  0  0  0  0
    5.3054    7.0841    0.0000 H   0  0  0  0  0  0  0  0  0  0  0  0
    4.6854    6.4641    0.0000 H   0  0  0  0  0  0  0  0  0  0  0  0
    5.3054    5.8441    0.0000 H   0  0  0  0  0  0  0  0  0  0  0  0
    7.7064   10.2068    0.0000 H   0  0  0  0  0  0  0  0  0  0  0  0
    6.6325   10.2068    0.0000 H   0  0  0  0  0  0  0  0  0  0  0  0
    1.0739    5.2584    0.0000 H   0  0  0  0  0  0  0  0  0  0  0  0
    0.0000    5.2584    0.0000 H   0  0  0  0  0  0  0  0  0  0  0  0
  1  3  2  0  0  0  0
  1 12  1  0  0  0  0
  1 16  1  0  0  0  0
  2  6  1  0  0  0  0
  4 57  1  0  0  0  0
  4 58  1  0  0  0  0
  5 59  1  0  0  0  0
  5 60  1  0  0  0  0
  6  8  1  0  0  0  0
  6  9  1  0  0  0  0
  6 10  1  0  0  0  0
  7 19  1  0  0  0  0
  7 27  1  0  0  0  0
  7 28  1  0  0  0  0
  8 12  2  0  0  0  0
  8 15  1  0  0  0  0
  9 14  1  0  0  0  0
  9 29  1  0  0  0  0
  9 30  1  0  0  0  0
 10 16  1  0  0  0  0
 10 20  2  0  0  0  0
 11 13  1  0  0  0  0
 11 21  1  0  0  0  0
 11 22  1  0  0  0  0
 11 23  1  0  0  0  0
 12 17  1  0  0  0  0
 13 15  2  0  0  0  0
 13 18  1  0  0  0  0
 14 19  1  0  0  0  0
 14 31  1  0  0  0  0
 14 32  1  0  0  0  0
 15 33  1  0  0  0  0
 16 24  2  0  0  0  0
 17 18  2  0  0  0  0
 17 34  1  0  0  0  0
 18 35  1  0  0  0  0
 19 36  1  0  0  0  0
 19 37  1  0  0  0  0
 20 25  1  0  0  0  0
 20 38  1  0  0  0  0
 21 43  1  0  0  0  0
 21 44  1  0  0  0  0
 21 45  1  0  0  0  0
 22 42  1  0  0  0  0
 22 46  1  0  0  0  0
 22 47  1  0  0  0  0
 23 39  1  0  0  0  0
 23 40  1  0  0  0  0
 23 41  1  0  0  0  0
 24 26  1  0  0  0  0
 24 48  1  0  0  0  0
 25 26  2  0  0  0  0
 25 49  1  0  0  0  0
 26 50  1  0  0  0  0
 27 51  1  0  0  0  0
 27 52  1  0  0  0  0
 27 53  1  0  0  0  0
 28 54  1  0  0  0  0
 28 55  1  0  0  0  0
 28 56  1  0  0  0  0
M  CHG  2   2  -1   6   1
M  END
> <PUBCHEM_COMPOUND_CID>
114328

> <PUBCHEM_COMPOUND_CANONICALIZED>
1

> <PUBCHEM_CACTVS_COMPLEXITY>
519

> <PUBCHEM_CACTVS_HBOND_ACCEPTOR>
6

> <PUBCHEM_CACTVS_HBOND_DONOR>
2

> <PUBCHEM_CACTVS_ROTATABLE_BOND>
5

> <PUBCHEM_CACTVS_SUBSKEYS>
AAADcfB7OABAAAAAAAAAAAAAAAAAAAAAAAA8YIAAAAAAAACxQAAAHAQECAAADgjBWAQywYMQAAqAAiRCQEDCAAAhChAoiBwIZIoIIGLg0ZGEIAhggADoyAcQgMAPkAAAQAAAAQAgAACAAAACAAAAAAAAAA==

> <PUBCHEM_IUPAC_OPENEYE_NAME>
3-(2-tert-butyl-10-oxido-5-oxo-phenothiazin-10-ium-10-yl)-N,N-dimethyl-propan-1-amine;dihydrate

> <PUBCHEM_IUPAC_CAS_NAME>
3-(2-tert-butyl-10-oxido-5-oxo-10-phenothiazin-10-iumyl)-N,N-dimethyl-1-propanamine;dihydrate

> <PUBCHEM_IUPAC_NAME>
3-(2-tert-butyl-10-oxido-5-oxophenothiazin-10-ium-10-yl)-N,N-dimethylpropan-1-amine;dihydrate

> <PUBCHEM_IUPAC_SYSTEMATIC_NAME>
3-(2-tert-butyl-10-oxidanidyl-5-oxidanylidene-phenothiazin-10-ium-10-yl)-N,N-dimethyl-propan-1-amine;dihydrate

> <PUBCHEM_IUPAC_TRADITIONAL_NAME>
3-(2-tert-butyl-5-keto-10-oxido-phenothiazin-10-ium-10-yl)propyl-dimethyl-amine;dihydrate

> <PUBCHEM_IUPAC_INCHI>
InChI=1S/C21H28N2O2S.2H2O/c1-21(2,3)16-11-12-20-18(15-16)23(24,14-8-13-22(4)5)17-9-6-7-10-19(17)26(20)25;;/h6-7,9-12,15H,8,13-14H2,1-5H3;2*1H2

> <PUBCHEM_IUPAC_INCHIKEY>
UPCGRNOLIKUHRT-UHFFFAOYSA-N

> <PUBCHEM_EXACT_MASS>
408.208279

> <PUBCHEM_MOLECULAR_FORMULA>
C21H32N2O4S

> <PUBCHEM_MOLECULAR_WEIGHT>
408.55478

> <PUBCHEM_OPENEYE_CAN_SMILES>
CC(C)(C)C1=CC2=C(C=C1)S(=O)C3=CC=CC=C3[N+]2(CCCN(C)C)[O-].O.O

> <PUBCHEM_OPENEYE_ISO_SMILES>
CC(C)(C)C1=CC2=C(C=C1)S(=O)C3=CC=CC=C3[N+]2(CCCN(C)C)[O-].O.O

> <PUBCHEM_CACTVS_TPSA>
59.6

> <PUBCHEM_MONOISOTOPIC_WEIGHT>
408.208279

> <PUBCHEM_TOTAL_CHARGE>
0

> <PUBCHEM_HEAVY_ATOM_COUNT>
28

> <PUBCHEM_ATOM_DEF_STEREO_COUNT>
0

> <PUBCHEM_ATOM_UDEF_STEREO_COUNT>
2

> <PUBCHEM_BOND_DEF_STEREO_COUNT>
0

> <PUBCHEM_BOND_UDEF_STEREO_COUNT>
0

> <PUBCHEM_ISOTOPIC_ATOM_COUNT>
0

> <PUBCHEM_COMPONENT_COUNT>
3

> <PUBCHEM_CACTVS_TAUTO_COUNT>
1

> <PUBCHEM_COORDINATE_TYPE>
1
5
255

> <PUBCHEM_BONDANNOTATIONS>
1  16  3
10  16  8
10  20  8
12  17  8
13  15  8
13  18  8
16  24  8
17  18  8
6  2  3
20  25  8
24  26  8
25  26  8
8  12  8
8  15  8

$$$$
