123029
  -OEChem-12211211292D

 44 52  0     0  0  0  0  0  0999 V2000
    5.5837   -0.2183    0.0000 C   0  0  0  0  0  0  0  0  0  0  0  0
    4.7177    0.2817    0.0000 C   0  0  0  0  0  0  0  0  0  0  0  0
    6.4498    0.2817    0.0000 C   0  0  0  0  0  0  0  0  0  0  0  0
    4.7177    1.2817    0.0000 C   0  0  0  0  0  0  0  0  0  0  0  0
    6.4498    1.2817    0.0000 C   0  0  0  0  0  0  0  0  0  0  0  0
    5.5837    1.7817    0.0000 C   0  0  0  0  0  0  0  0  0  0  0  0
    5.5998   -1.2598    0.0000 C   0  0  0  0  0  0  0  0  0  0  0  0
    3.8077   -0.2251    0.0000 C   0  0  0  0  0  0  0  0  0  0  0  0
    3.7997   -1.2667    0.0000 C   0  0  0  0  0  0  0  0  0  0  0  0
    4.7018   -1.7875    0.0000 C   0  0  0  0  0  0  0  0  0  0  0  0
    3.8595    1.7787    0.0000 C   0  0  0  0  0  0  0  0  0  0  0  0
    7.3092   -0.2130    0.0000 C   0  0  0  0  0  0  0  0  0  0  0  0
    2.9684    0.3031    0.0000 C   0  0  0  0  0  0  0  0  0  0  0  0
    6.4769   -1.7225    0.0000 C   0  0  0  0  0  0  0  0  0  0  0  0
    5.5936    2.7930    0.0000 C   0  0  0  0  0  0  0  0  0  0  0  0
    7.3206    1.7959    0.0000 C   0  0  0  0  0  0  0  0  0  0  0  0
    2.9940    1.2945    0.0000 C   0  0  0  0  0  0  0  0  0  0  0  0
    7.3227   -1.2046    0.0000 C   0  0  0  0  0  0  0  0  0  0  0  0
    3.8460    2.7898    0.0000 C   0  0  0  0  0  0  0  0  0  0  0  0
    8.1917    0.2809    0.0000 C   0  0  0  0  0  0  0  0  0  0  0  0
    4.7189    3.3004    0.0000 C   0  0  0  0  0  0  0  0  0  0  0  0
    8.1974    1.2921    0.0000 C   0  0  0  0  0  0  0  0  0  0  0  0
    7.3240    2.8146    0.0000 C   0  0  0  0  0  0  0  0  0  0  0  0
    6.4396    3.3201    0.0000 C   0  0  0  0  0  0  0  0  0  0  0  0
    4.7278   -2.8290    0.0000 C   0  0  0  0  0  0  0  0  0  0  0  0
    2.8847   -1.7649    0.0000 C   0  0  0  0  0  0  0  0  0  0  0  0
    6.5271   -2.7631    0.0000 C   0  0  0  0  0  0  0  0  0  0  0  0
    2.0421   -0.1737    0.0000 C   0  0  0  0  0  0  0  0  0  0  0  0
    5.6466   -3.3201    0.0000 C   0  0  0  0  0  0  0  0  0  0  0  0
    2.0000   -1.2147    0.0000 C   0  0  0  0  0  0  0  0  0  0  0  0
    2.4633    1.6150    0.0000 H   0  0  0  0  0  0  0  0  0  0  0  0
    7.8656   -1.5040    0.0000 H   0  0  0  0  0  0  0  0  0  0  0  0
    3.3062    3.0947    0.0000 H   0  0  0  0  0  0  0  0  0  0  0  0
    8.7256   -0.0342    0.0000 H   0  0  0  0  0  0  0  0  0  0  0  0
    4.7178    3.9204    0.0000 H   0  0  0  0  0  0  0  0  0  0  0  0
    8.7349    1.6012    0.0000 H   0  0  0  0  0  0  0  0  0  0  0  0
    6.4279    3.9400    0.0000 H   0  0  0  0  0  0  0  0  0  0  0  0
    7.8608    3.1248    0.0000 H   0  0  0  0  0  0  0  0  0  0  0  0
    2.8668   -2.3846    0.0000 H   0  0  0  0  0  0  0  0  0  0  0  0
    4.2001   -3.1544    0.0000 H   0  0  0  0  0  0  0  0  0  0  0  0
    1.5195    0.1597    0.0000 H   0  0  0  0  0  0  0  0  0  0  0  0
    7.0772   -3.0490    0.0000 H   0  0  0  0  0  0  0  0  0  0  0  0
    1.4521   -1.5048    0.0000 H   0  0  0  0  0  0  0  0  0  0  0  0
    5.6693   -3.9397    0.0000 H   0  0  0  0  0  0  0  0  0  0  0  0
  1  2  1  0  0  0  0
  1  3  1  0  0  0  0
  1  7  2  0  0  0  0
  2  4  1  0  0  0  0
  2  8  2  0  0  0  0
  3  5  1  0  0  0  0
  3 12  2  0  0  0  0
  4  6  1  0  0  0  0
  4 11  2  0  0  0  0
  5  6  1  0  0  0  0
  5 16  2  0  0  0  0
  6 15  2  0  0  0  0
  7 10  1  0  0  0  0
  7 14  1  0  0  0  0
  8  9  1  0  0  0  0
  8 13  1  0  0  0  0
  9 10  1  0  0  0  0
  9 26  2  0  0  0  0
 10 25  2  0  0  0  0
 11 17  1  0  0  0  0
 11 19  1  0  0  0  0
 12 18  1  0  0  0  0
 12 20  1  0  0  0  0
 13 17  2  0  0  0  0
 13 28  1  0  0  0  0
 14 18  2  0  0  0  0
 14 27  1  0  0  0  0
 15 21  1  0  0  0  0
 15 24  1  0  0  0  0
 16 22  1  0  0  0  0
 16 23  1  0  0  0  0
 17 31  1  0  0  0  0
 18 32  1  0  0  0  0
 19 21  2  0  0  0  0
 19 33  1  0  0  0  0
 20 22  2  0  0  0  0
 20 34  1  0  0  0  0
 21 35  1  0  0  0  0
 22 36  1  0  0  0  0
 23 24  2  0  0  0  0
 23 38  1  0  0  0  0
 24 37  1  0  0  0  0
 25 29  1  0  0  0  0
 25 40  1  0  0  0  0
 26 30  1  0  0  0  0
 26 39  1  0  0  0  0
 27 29  2  0  0  0  0
 27 42  1  0  0  0  0
 28 30  2  0  0  0  0
 28 41  1  0  0  0  0
 29 44  1  0  0  0  0
 30 43  1  0  0  0  0
M  END
> <PUBCHEM_COMPOUND_CID>
123029

> <PUBCHEM_COMPOUND_CANONICALIZED>
1

> <PUBCHEM_CACTVS_COMPLEXITY>
676

> <PUBCHEM_CACTVS_HBOND_ACCEPTOR>
0

> <PUBCHEM_CACTVS_HBOND_DONOR>
0

> <PUBCHEM_CACTVS_ROTATABLE_BOND>
0

> <PUBCHEM_CACTVS_SUBSKEYS>
AAADccB4AAAAAAAAAAAAAAAAAAAAAAAAAAAwYMGDAAAAAADBVAAAGAAAAAAADACAGAAwAMAAAACAAiBCAAACAAAgAAAIiAAAAIgIICKAERCAIAAggAAIiAcAgMAOwAACAAAQAACAAAQAACAAAAAAAAAAAA==

> <PUBCHEM_IUPAC_INCHI>
InChI=1S/C30H14/c1-3-17-13-19-11-9-15-7-8-16-10-12-20-14-18-4-2-6-22-21(5-1)23(17)29-27(19)25(15)26(16)28(20)30(29)24(18)22/h1-14H

> <PUBCHEM_IUPAC_INCHIKEY>
YVVKYYLDAVMMPF-UHFFFAOYSA-N

> <PUBCHEM_XLOGP3>
9.1

> <PUBCHEM_EXACT_MASS>
374.10955

> <PUBCHEM_MOLECULAR_FORMULA>
C30H14

> <PUBCHEM_MOLECULAR_WEIGHT>
374.43216

> <PUBCHEM_OPENEYE_CAN_SMILES>
C1=CC2=CC3=C4C5=C(C=CC6=C5C7=C(C=C6)C=C8C=CC=C9C8=C7C4=C2C9=C1)C=C3

> <PUBCHEM_OPENEYE_ISO_SMILES>
C1=CC2=CC3=C4C5=C(C=CC6=C5C7=C(C=C6)C=C8C=CC=C9C8=C7C4=C2C9=C1)C=C3

> <PUBCHEM_CACTVS_TPSA>
0

> <PUBCHEM_MONOISOTOPIC_WEIGHT>
374.10955

> <PUBCHEM_TOTAL_CHARGE>
0

> <PUBCHEM_HEAVY_ATOM_COUNT>
30

> <PUBCHEM_ATOM_DEF_STEREO_COUNT>
0

> <PUBCHEM_ATOM_UDEF_STEREO_COUNT>
0

> <PUBCHEM_BOND_DEF_STEREO_COUNT>
0

> <PUBCHEM_BOND_UDEF_STEREO_COUNT>
0

> <PUBCHEM_ISOTOPIC_ATOM_COUNT>
0

> <PUBCHEM_COMPONENT_COUNT>
1

> <PUBCHEM_CACTVS_TAUTO_COUNT>
1

> <PUBCHEM_COORDINATE_TYPE>
1
5
255

> <PUBCHEM_BONDANNOTATIONS>
1  2  8
1  3  8
1  7  8
10  25  8
11  17  8
11  19  8
12  18  8
12  20  8
13  17  8
13  28  8
14  18  8
14  27  8
15  21  8
15  24  8
16  22  8
16  23  8
19  21  8
2  4  8
2  8  8
20  22  8
23  24  8
25  29  8
26  30  8
27  29  8
28  30  8
3  12  8
3  5  8
4  11  8
4  6  8
5  16  8
5  6  8
6  15  8
7  10  8
7  14  8
8  13  8
8  9  8
9  10  8
9  26  8

$$$$
